assets/data/ieee14/ieee14.json
{"bus":{"4":{"coord":[105,50],"zone":1,"bus_i":4,"bus_type":1,"name":"Bus 4     HV","vmax":1.06,"source_id":["bus",4],"area":1,"vmin":0.94,"index":4,"va":-0.18029251173101424,"vm":1.019,"base_kv":0.0},"1":{"coord":[0,50],"zone":1,"bus_i":1,"bus_type":3,"name":"Bus 1     HV","vmax":1.06,"source_id":["bus",1],"area":1,"vmin":0.94,"index":1,"va":0.0,"vm":1.06,"base_kv":0.0},"12":{"coord":[15,93],"zone":1,"bus_i":12,"bus_type":1,"name":"Bus 12    LV","vmax":1.06,"source_id":["bus",12],"area":1,"vmin":0.94,"index":12,"va":-0.2630211182755455,"vm":1.055,"base_kv":0.0},"2":{"coord":[21,5],"zone":1,"bus_i":2,"bus_type":2,"name":"Bus 2     HV","vmax":1.06,"source_id":["bus",2],"area":1,"vmin":0.94,"index":2,"va":-0.08691739674931762,"vm":1.045,"base_kv":0.0},"6":{"coord":[45,60],"zone":1,"bus_i":6,"bus_type":2,"name":"Bus 6     LV","vmax":1.06,"source_id":["bus",6],"area":1,"vmin":0.94,"index":6,"va":-0.24818581963359368,"vm":1.07,"base_kv":0.0},"11":{"coord":[60,85],"zone":1,"bus_i":11,"bus_type":1,"name":"Bus 11    LV","vmax":1.06,"source_id":["bus",11],"area":1,"vmin":0.94,"index":11,"va":-0.2581341963699613,"vm":1.057,"base_kv":0.0},"13":{"coord":[48,105],"zone":1,"bus_i":13,"bus_type":1,"name":"Bus 13    LV","vmax":1.06,"source_id":["bus",13],"area":1,"vmin":0.94,"index":13,"va":-0.2645919146023404,"vm":1.05,"base_kv":0.0},"5":{"coord":[35,35],"zone":1,"bus_i":5,"bus_type":1,"name":"Bus 5     HV","vmax":1.06,"source_id":["bus",5],"area":1,"vmin":0.94,"index":5,"va":-0.15323990832510212,"vm":1.02,"base_kv":0.0},"14":{"coord":[80,92],"zone":1,"bus_i":14,"bus_type":1,"name":"Bus 14    LV","vmax":1.06,"source_id":["bus",14],"area":1,"vmin":0.94,"index":14,"va":-0.27995081201989047,"vm":1.036,"base_kv":0.0},"7":{"coord":[115,62],"zone":1,"bus_i":7,"bus_type":1,"name":"Bus 7     ZV","vmax":1.06,"source_id":["bus",7],"area":1,"vmin":0.94,"index":7,"va":-0.23335052099164186,"vm":1.062,"base_kv":0.0},"8":{"coord":[130,65],"zone":1,"bus_i":8,"bus_type":2,"name":"Bus 8     TV","vmax":1.06,"source_id":["bus",8],"area":1,"vmin":0.94,"index":8,"va":-0.2331759880664424,"vm":1.09,"base_kv":0.0},"10":{"coord":[80,75],"zone":1,"bus_i":10,"bus_type":1,"name":"Bus 10    LV","vmax":1.06,"source_id":["bus",10],"area":1,"vmin":0.94,"index":10,"va":-0.26354471705114374,"vm":1.051,"base_kv":0.0},"9":{"coord":[110,75],"zone":1,"bus_i":9,"bus_type":1,"name":"Bus 9     LV","vmax":1.06,"source_id":["bus",9],"area":1,"vmin":0.94,"index":9,"va":-0.2607521902479528,"vm":1.056,"base_kv":0.0},"3":{"coord":[105,0],"zone":1,"bus_i":3,"bus_type":2,"name":"Bus 3     HV","vmax":1.06,"source_id":["bus",3],"area":1,"vmin":0.94,"index":3,"va":-0.22200588085367873,"vm":1.01,"base_kv":0.0}},"source_type":"matpower","name":"case14","dcline":{},"source_version":"2","gen":{"4":{"ncost":3,"qc1max":0.0,"pg":0.0,"model":2,"shutdown":0.0,"startup":0.0,"qc2max":0.0,"ramp_agc":0.0,"qg":0.122,"gen_bus":6,"pmax":1.0,"ramp_10":0.0,"vg":1.07,"mbase":100.0,"source_id":["gen",4],"pc2":0.0,"index":4,"cost":[100.0,4000.0,0.0],"qmax":0.24,"gen_status":1,"qmin":-0.06,"qc1min":0.0,"qc2min":0.0,"pc1":0.0,"ramp_q":0.01,"ramp_30":0.0,"pmin":0.0,"apf":0.0},"1":{"ncost":3,"qc1max":0.0,"pg":2.324,"model":2,"shutdown":0.0,"startup":0.0,"qc2max":0.0,"ramp_agc":0.01,"qg":-0.16899999999999998,"gen_bus":1,"pmax":3.324,"ramp_10":0.0,"vg":1.06,"mbase":100.0,"source_id":["gen",1],"pc2":0.0,"index":1,"cost":[430.292599,2000.0,0.0],"qmax":0.1,"gen_status":1,"qmin":0.0,"qc1min":0.0,"qc2min":0.0,"pc1":0.0,"ramp_q":0.0,"ramp_30":0.0,"pmin":0.0,"apf":0.0},"5":{"ncost":3,"qc1max":0.0,"pg":0.0,"model":2,"shutdown":0.0,"startup":0.0,"qc2max":0.0,"ramp_agc":0.0,"qg":0.174,"gen_bus":8,"pmax":1.0,"ramp_10":0.0,"vg":1.09,"mbase":100.0,"source_id":["gen",5],"pc2":0.0,"index":5,"cost":[100.0,4000.0,0.0],"qmax":0.24,"gen_status":1,"qmin":-0.06,"qc1min":0.0,"qc2min":0.0,"pc1":0.0,"ramp_q":0.0,"ramp_30":0.0,"pmin":0.0,"apf":0.0},"2":{"ncost":3,"qc1max":0.0,"pg":0.4,"model":2,"shutdown":0.0,"startup":0.0,"qc2max":0.0,"ramp_agc":0.0,"qg":0.424,"gen_bus":2,"pmax":1.4,"ramp_10":0.01,"vg":1.045,"mbase":100.0,"source_id":["gen",2],"pc2":0.0,"index":2,"cost":[2500.0,2000.0,0.0],"qmax":0.5,"gen_status":1,"qmin":-0.4,"qc1min":0.0,"qc2min":0.0,"pc1":0.0,"ramp_q":0.0,"ramp_30":0.0,"pmin":0.0,"apf":0.0},"3":{"ncost":3,"qc1max":0.0,"pg":0.0,"model":2,"shutdown":0.0,"startup":0.0,"qc2max":0.0,"ramp_agc":0.0,"qg":0.23399999999999999,"gen_bus":3,"pmax":1.0,"ramp_10":0.0,"vg":1.01,"mbase":100.0,"source_id":["gen",3],"pc2":0.0,"index":3,"cost":[100.0,4000.0,0.0],"qmax":0.4,"gen_status":1,"qmin":0.0,"qc1min":0.0,"qc2min":0.0,"pc1":0.0,"ramp_q":0.0,"ramp_30":0.01,"pmin":0.0,"apf":0.0}},"branch":{"4":{"br_r":0.05811,"shift":0.0,"br_x":0.17632,"g_to":0.0,"g_fr":0.0,"source_id":["branch",4],"b_fr":0.017,"f_bus":2,"br_status":1,"t_bus":4,"b_to":0.017,"index":4,"angmin":-1.0472,"angmax":1.0472,"transformer":false,"tap":1.0},"1":{"br_r":0.01938,"shift":0.0,"br_x":0.05917,"g_to":0.0,"g_fr":0.0,"source_id":["branch",1],"b_fr":0.0264,"f_bus":1,"br_status":1,"t_bus":2,"b_to":0.0264,"index":1,"angmin":-1.0472,"angmax":1.0472,"transformer":false,"tap":1.0},"12":{"br_r":0.12291,"shift":0.0,"br_x":0.25581,"g_to":0.0,"g_fr":0.0,"source_id":["branch",12],"b_fr":0.0,"f_bus":6,"br_status":1,"t_bus":12,"b_to":0.0,"index":12,"angmin":-1.0472,"angmax":1.0472,"transformer":false,"tap":1.0},"20":{"br_r":0.17093,"shift":0.0,"br_x":0.34802,"g_to":0.0,"g_fr":0.0,"source_id":["branch",20],"b_fr":0.0,"f_bus":13,"br_status":1,"t_bus":14,"b_to":0.0,"index":20,"angmin":-1.0472,"angmax":1.0472,"transformer":false,"tap":1.0},"2":{"br_r":0.05403,"shift":0.0,"br_x":0.22304,"g_to":0.0,"g_fr":0.0,"source_id":["branch",2],"b_fr":0.0246,"f_bus":1,"br_status":1,"t_bus":5,"b_to":0.0246,"index":2,"angmin":-1.0472,"angmax":1.0472,"transformer":false,"tap":1.0},"6":{"br_r":0.06701,"shift":0.0,"br_x":0.17103,"g_to":0.0,"g_fr":0.0,"source_id":["branch",6],"b_fr":0.0064,"f_bus":3,"br_status":1,"t_bus":4,"b_to":0.0064,"index":6,"angmin":-1.0472,"angmax":1.0472,"transformer":false,"tap":1.0},"11":{"br_r":0.09498,"shift":0.0,"br_x":0.1989,"g_to":0.0,"g_fr":0.0,"source_id":["branch",11],"b_fr":0.0,"f_bus":6,"br_status":1,"t_bus":11,"b_to":0.0,"index":11,"angmin":-1.0472,"angmax":1.0472,"transformer":false,"tap":1.0},"13":{"br_r":0.06615,"shift":0.0,"br_x":0.13027,"g_to":0.0,"g_fr":0.0,"source_id":["branch",13],"b_fr":0.0,"f_bus":6,"br_status":1,"t_bus":13,"b_to":0.0,"index":13,"angmin":-1.0472,"angmax":1.0472,"transformer":false,"tap":1.0},"5":{"br_r":0.05695,"shift":0.0,"br_x":0.17388,"g_to":0.0,"g_fr":0.0,"source_id":["branch",5],"b_fr":0.0173,"f_bus":2,"br_status":1,"t_bus":5,"b_to":0.0173,"index":5,"angmin":-1.0472,"angmax":1.0472,"transformer":false,"tap":1.0},"15":{"br_r":0.0,"shift":0.0,"br_x":0.11001,"g_to":0.0,"g_fr":0.0,"source_id":["branch",15],"b_fr":0.0,"f_bus":7,"br_status":1,"t_bus":9,"b_to":0.0,"index":15,"angmin":-1.0472,"angmax":1.0472,"transformer":false,"tap":1.0},"16":{"br_r":0.03181,"shift":0.0,"br_x":0.0845,"g_to":0.0,"g_fr":0.0,"source_id":["branch",16],"b_fr":0.0,"f_bus":9,"br_status":1,"t_bus":10,"b_to":0.0,"index":16,"angmin":-1.0472,"angmax":1.0472,"transformer":false,"tap":1.0},"14":{"br_r":0.0,"shift":0.0,"br_x":0.17615,"g_to":0.0,"g_fr":0.0,"source_id":["branch",14],"b_fr":0.0,"f_bus":7,"br_status":1,"t_bus":8,"b_to":0.0,"index":14,"angmin":-1.0472,"angmax":1.0472,"transformer":false,"tap":1.0},"7":{"br_r":0.01335,"shift":0.0,"br_x":0.04211,"g_to":0.0,"g_fr":0.0,"source_id":["branch",7],"b_fr":0.0,"f_bus":4,"br_status":1,"t_bus":5,"b_to":0.0,"index":7,"angmin":-1.0472,"angmax":1.0472,"transformer":false,"tap":1.0},"8":{"br_r":0.0,"shift":0.0,"br_x":0.20912,"g_to":0.0,"g_fr":0.0,"source_id":["branch",8],"b_fr":0.0,"f_bus":4,"br_status":1,"t_bus":7,"b_to":0.0,"index":8,"angmin":-1.0472,"angmax":1.0472,"transformer":true,"tap":0.978},"17":{"br_r":0.12711,"shift":0.0,"br_x":0.27038,"g_to":0.0,"g_fr":0.0,"source_id":["branch",17],"b_fr":0.0,"f_bus":9,"br_status":1,"t_bus":14,"b_to":0.0,"index":17,"angmin":-1.0472,"angmax":1.0472,"transformer":false,"tap":1.0},"10":{"br_r":0.0,"shift":0.0,"br_x":0.25202,"g_to":0.0,"g_fr":0.0,"source_id":["branch",10],"b_fr":0.0,"f_bus":5,"br_status":1,"t_bus":6,"b_to":0.0,"index":10,"angmin":-1.0472,"angmax":1.0472,"transformer":true,"tap":0.932},"19":{"br_r":0.22092,"shift":0.0,"br_x":0.19988,"g_to":0.0,"g_fr":0.0,"source_id":["branch",19],"b_fr":0.0,"f_bus":12,"br_status":1,"t_bus":13,"b_to":0.0,"index":19,"angmin":-1.0472,"angmax":1.0472,"transformer":false,"tap":1.0},"9":{"br_r":0.0,"shift":0.0,"br_x":0.55618,"g_to":0.0,"g_fr":0.0,"source_id":["branch",9],"b_fr":0.0,"f_bus":4,"br_status":1,"t_bus":9,"b_to":0.0,"index":9,"angmin":-1.0472,"angmax":1.0472,"transformer":true,"tap":0.969},"18":{"br_r":0.08205,"shift":0.0,"br_x":0.19207,"g_to":0.0,"g_fr":0.0,"source_id":["branch",18],"b_fr":0.0,"f_bus":10,"br_status":1,"t_bus":11,"b_to":0.0,"index":18,"angmin":-1.0472,"angmax":1.0472,"transformer":false,"tap":1.0},"3":{"br_r":0.04699,"shift":0.0,"br_x":0.19797,"g_to":0.0,"g_fr":0.0,"source_id":["branch",3],"b_fr":0.0219,"f_bus":2,"br_status":1,"t_bus":3,"b_to":0.0219,"index":3,"angmin":-1.0472,"angmax":1.0472,"transformer":false,"tap":1.0}},"storage":{},"switch":{},"baseMVA":100,"per_unit":true,"shunt":{"1":{"source_id":["bus",9],"shunt_bus":9,"status":1,"gs":0.0,"bs":0.19,"index":1}},"load":{"4":{"source_id":["bus",5],"load_bus":5,"status":1,"qd":0.016,"pd":0.076,"index":4},"1":{"source_id":["bus",2],"load_bus":2,"status":1,"qd":0.127,"pd":0.217,"index":1},"2":{"source_id":["bus",3],"load_bus":3,"status":1,"qd":0.19,"pd":0.9420000000000001,"index":2},"6":{"source_id":["bus",9],"load_bus":9,"status":1,"qd":0.166,"pd":0.295,"index":6},"11":{"source_id":["bus",14],"load_bus":14,"status":1,"qd":0.05,"pd":0.149,"index":11},"5":{"source_id":["bus",6],"load_bus":6,"status":1,"qd":0.075,"pd":0.11199999999999999,"index":5},"7":{"source_id":["bus",10],"load_bus":10,"status":1,"qd":0.057999999999999996,"pd":0.09,"index":7},"8":{"source_id":["bus",11],"load_bus":11,"status":1,"qd":0.018000000000000002,"pd":0.035,"index":8},"10":{"source_id":["bus",13],"load_bus":13,"status":1,"qd":0.057999999999999996,"pd":0.135,"index":10},"9":{"source_id":["bus",12],"load_bus":12,"status":1,"qd":0.016,"pd":0.061,"index":9},"3":{"source_id":["bus",4],"load_bus":4,"status":1,"qd":-0.039,"pd":0.478,"index":3}}}